@<TRIPOS>MOLECULE
3VTE-89_299-480_538-CBGA.pdb
58 58 1 0 0
SMALL
NO_CHARGES


@<TRIPOS>ATOM
      1 C1         68.7660   52.8880  -16.5410 C.3       1 CBGA    0.0000
      2 C2         68.6000   54.3850  -16.2840 C.3       1 CBGA    0.0000
      3 C3         68.8170   55.2330  -17.5470 C.3       1 CBGA    0.0000
      4 C4         67.6790   55.0730  -18.5670 C.3       1 CBGA    0.0000
      5 C5         67.8720   56.0190  -19.7580 C.3       1 CBGA    0.0000
      6 C6         66.7790   55.8150  -20.7880 C.ar      1 CBGA    0.0000
      7 C7         65.5340   56.4120  -20.5470 C.ar      1 CBGA    0.0000
      8 C8         64.4960   56.3150  -21.4770 C.ar      1 CBGA    0.0000
      9 C9         64.6900   55.6120  -22.6780 C.ar      1 CBGA    0.0000
     10 C10        65.9210   54.9660  -22.9180 C.ar      1 CBGA    0.0000
     11 C11        66.9810   55.0810  -21.9850 C.ar      1 CBGA    0.0000
     12 C12        68.2800   54.4320  -22.2590 C.2       1 CBGA    0.0000
     13 O1         68.9000   54.6840  -23.3270 O.2       1 CBGA    0.0000
     14 O2         68.8280   53.5470  -21.3350 O.3       1 CBGA    0.0000
     15 O3         66.0520   54.1930  -24.0770 O.3       1 CBGA    0.0000
     16 C13        63.5520   55.4780  -23.6640 C.3       1 CBGA    0.0000
     17 C14        62.7450   54.2410  -23.3480 C.2       1 CBGA    0.0000
     18 C15        61.4090   54.2190  -23.1400 C.2       1 CBGA    0.0000
     19 C16        60.5670   55.4690  -23.2010 C.3       1 CBGA    0.0000
     20 C17        60.7330   52.8920  -22.8570 C.3       1 CBGA    0.0000
     21 C18        60.5880   52.0490  -24.1290 C.3       1 CBGA    0.0000
     22 C19        59.6410   52.7060  -25.1080 C.2       1 CBGA    0.0000
     23 C20        59.9950   53.1800  -26.3240 C.2       1 CBGA    0.0000
     24 C21        61.4120   53.1110  -26.8340 C.3       1 CBGA    0.0000
     25 C22        58.9630   53.8500  -27.1950 C.3       1 CBGA    0.0000
     26 O4         63.2680   56.9170  -21.2050 O.3       1 CBGA    0.0000
     27 H1         67.9510   52.5070  -17.1920 H         1 CBGA    0.0000
     28 H2         69.7480   52.6820  -17.0180 H         1 CBGA    0.0000
     29 H3         68.7210   52.3410  -15.5760 H         1 CBGA    0.0000
     30 H4         67.5920   54.5810  -15.8600 H         1 CBGA    0.0000
     31 H5         69.3510   54.6930  -15.5240 H         1 CBGA    0.0000
     32 H6         69.7880   54.9640  -18.0180 H         1 CBGA    0.0000
     33 H7         68.8750   56.3000  -17.2390 H         1 CBGA    0.0000
     34 H8         66.7080   55.2950  -18.0740 H         1 CBGA    0.0000
     35 H9         67.6540   54.0270  -18.9380 H         1 CBGA    0.0000
     36 H10        67.8480   57.0730  -19.4030 H         1 CBGA    0.0000
     37 H11        68.8800   55.8700  -20.2000 H         1 CBGA    0.0000
     38 H12        65.3720   56.9680  -19.6320 H         1 CBGA    0.0000
     39 H13        69.7210   53.1020  -21.5080 H         1 CBGA    0.0000
     40 H14        66.8590   53.6180  -24.2800 H         1 CBGA    0.0000
     41 H15        63.9470   55.3840  -24.6970 H         1 CBGA    0.0000
     42 H16        62.9420   56.4040  -23.6640 H         1 CBGA    0.0000
     43 H17        63.2940   53.3030  -23.3150 H         1 CBGA    0.0000
     44 H18        60.8890   56.1850  -22.4160 H         1 CBGA    0.0000
     45 H19        60.6620   55.9400  -24.2020 H         1 CBGA    0.0000
     46 H20        59.4930   55.2430  -23.0380 H         1 CBGA    0.0000
     47 H21        59.7300   53.0480  -22.4040 H         1 CBGA    0.0000
     48 H22        61.3300   52.3250  -22.1080 H         1 CBGA    0.0000
     49 H23        61.5910   51.8540  -24.5630 H         1 CBGA    0.0000
     50 H24        60.1630   51.0600  -23.8540 H         1 CBGA    0.0000
     51 H25        58.6100   52.8090  -24.7800 H         1 CBGA    0.0000
     52 H26        61.7310   52.0520  -26.9290 H         1 CBGA    0.0000
     53 H27        62.0940   53.6500  -26.1430 H         1 CBGA    0.0000
     54 H28        61.4970   53.5860  -27.8350 H         1 CBGA    0.0000
     55 H29        59.2140   54.9250  -27.3040 H         1 CBGA    0.0000
     56 H30        58.9610   53.3760  -28.2000 H         1 CBGA    0.0000
     57 H31        57.9380   53.7670  -26.7730 H         1 CBGA    0.0000
     58 H32        63.1020   57.4270  -20.3460 H         1 CBGA    0.0000
@<TRIPOS>BOND
     1    1    2 1
     2    1   29 1
     3    1   27 1
     4    1   28 1
     5   10   15 1
     6   10    9 ar
     7   10   11 ar
     8   11    6 ar
     9   11   12 1
    10   12   14 1
    11   12   13 2
    12   16   42 1
    13   16   41 1
    14   16   17 1
    15   16    9 1
    16   17   43 1
    17   17   18 2
    18   18   19 1
    19   18   20 1
    20   19   45 1
    21   19   44 1
    22   19   46 1
    23   20   21 1
    24   20   48 1
    25   20   47 1
    26   21   50 1
    27   21   49 1
    28   21   22 1
    29   22   23 2
    30   22   51 1
    31    2    3 1
    32    2   30 1
    33    2   31 1
    34   23   24 1
    35   23   25 1
    36   24   54 1
    37   24   53 1
    38   24   52 1
    39   25   56 1
    40   25   57 1
    41   25   55 1
    42    3    4 1
    43    3   33 1
    44    3   32 1
    45    4   34 1
    46    4    5 1
    47    4   35 1
    48    5   37 1
    49    5   36 1
    50    5    6 1
    51    6    7 ar
    52    7   38 1
    53    7    8 ar
    54    8   26 1
    55    8    9 ar
    56   39   14 1
    57   40   15 1
    58   58   26 1
@<TRIPOS>SUBSTRUCTURE
     1 CBGA     1 RESIDUE           4 A     CBGA     0 ROOT
