@<TRIPOS>MOLECULE
MOL
   58    58     1     0     0
SMALL
bcc


@<TRIPOS>ATOM
      1 C1          -6.7200    -1.8480    -1.6820 c3         1 MOL      -0.093100
      2 C2          -6.8640    -0.3330    -1.8210 c3         1 MOL      -0.078400
      3 C3          -6.3190     0.4300    -0.6040 c3         1 MOL      -0.077400
      4 C4          -4.7870     0.3780    -0.5130 c3         1 MOL      -0.073400
      5 C5          -4.2750     1.2450     0.6440 c3         1 MOL      -0.047100
      6 C6          -2.7680     1.1430     0.7650 ca         1 MOL       0.060700
      7 C7          -1.9880     1.9030    -0.1170 ca         1 MOL      -0.268000
      8 C8          -0.5940     1.9040    -0.0290 ca         1 MOL       0.194100
      9 C9           0.0500     1.1360     0.9550 ca         1 MOL      -0.147300
     10 C10         -0.7150     0.3290     1.8230 ca         1 MOL       0.227100
     11 C11         -2.1300     0.3430     1.7480 ca         1 MOL      -0.250600
     12 C12         -2.9280    -0.4770     2.6830 c          1 MOL       0.667700
     13 O1          -2.7730    -0.3480     3.9270 o          1 MOL      -0.591000
     14 O2          -3.8590    -1.3890     2.1940 oh         1 MOL      -0.592100
     15 O3          -0.0430    -0.4990     2.7290 oh         1 MOL      -0.498100
     16 C13          1.5600     1.1110     1.0220 c3         1 MOL       0.017100
     17 C14          2.0920     0.0010     0.1480 c2         1 MOL      -0.169200
     18 C15          3.0110     0.1580    -0.8320 c2         1 MOL      -0.111400
     19 C16          3.6110     1.5030    -1.1600 c3         1 MOL      -0.062900
     20 C17          3.4680    -1.0590    -1.6110 c3         1 MOL      -0.040200
     21 C18          4.4320    -1.9250    -0.7920 c3         1 MOL      -0.041200
     22 C19          5.7270    -1.1900    -0.5280 c2         1 MOL      -0.172200
     23 C20          6.1640    -0.8130     0.6950 c2         1 MOL      -0.129400
     24 C21          5.3750    -1.0830     1.9510 c3         1 MOL      -0.056400
     25 C22          7.4580    -0.0510     0.8240 c3         1 MOL      -0.056400
     26 O4           0.1530     2.6690    -0.9250 oh         1 MOL      -0.487100
     27 H1          -5.6510    -2.1460    -1.7090 hc         1 MOL       0.033700
     28 H2          -7.1780    -2.1970    -0.7320 hc         1 MOL       0.033700
     29 H3          -7.2380    -2.3470    -2.5280 hc         1 MOL       0.033700
     30 H4          -6.3520     0.0070    -2.7470 hc         1 MOL       0.038700
     31 H5          -7.9450    -0.0950    -1.9280 hc         1 MOL       0.038700
     32 H6          -6.7680     0.0210     0.3280 hc         1 MOL       0.038700
     33 H7          -6.6370     1.4920    -0.6940 hc         1 MOL       0.038700
     34 H8          -4.3480     0.7420    -1.4680 hc         1 MOL       0.051700
     35 H9          -4.4570    -0.6700    -0.3520 hc         1 MOL       0.051700
     36 H10         -4.5570     2.3060     0.4660 hc         1 MOL       0.057200
     37 H11         -4.7800     0.9510     1.5880 hc         1 MOL       0.057200
     38 H12         -2.4690     2.5110    -0.8740 ha         1 MOL       0.142000
     39 H13         -4.4170    -1.9510     2.8250 ho         1 MOL       0.447000
     40 H14         -0.5050    -1.1800     3.3160 ho         1 MOL       0.458000
     41 H15          1.8960     0.9270     2.0640 hc         1 MOL       0.064700
     42 H16          1.9660     2.1070     0.7530 hc         1 MOL       0.064700
     43 H17          1.7140    -0.9980     0.3530 ha         1 MOL       0.127000
     44 H18          2.8190     2.2010    -1.5020 hc         1 MOL       0.043700
     45 H19          4.1190     1.9190    -0.2640 hc         1 MOL       0.043700
     46 H20          4.3690     1.4230    -1.9670 hc         1 MOL       0.043700
     47 H21          3.9610    -0.7580    -2.5610 hc         1 MOL       0.045200
     48 H22          2.5820    -1.6680    -1.8980 hc         1 MOL       0.045200
     49 H23          3.9300    -2.2640     0.1380 hc         1 MOL       0.048200
     50 H24          4.6710    -2.8400    -1.3750 hc         1 MOL       0.048200
     51 H25          6.3240    -0.9430    -1.4020 ha         1 MOL       0.125000
     52 H26          5.2660    -2.1770     2.1040 hc         1 MOL       0.039367
     53 H27          4.3730    -0.6100     1.8820 hc         1 MOL       0.039367
     54 H28          5.8900    -0.6620     2.8410 hc         1 MOL       0.039367
     55 H29          7.2460     0.9780     1.1800 hc         1 MOL       0.039367
     56 H30          8.1170    -0.5590     1.5600 hc         1 MOL       0.039367
     57 H31          8.0060     0.0150    -0.1410 hc         1 MOL       0.039367
     58 H32         -0.2870     3.2290    -1.6450 ho         1 MOL       0.425000
@<TRIPOS>BOND
     1     1     2 1   
     2     2     3 1   
     3     3     4 1   
     4     4     5 1   
     5     5     6 1   
     6     6     7 ar  
     7     7     8 ar  
     8     8     9 ar  
     9     9    10 ar  
    10    10    11 ar  
    11    11    12 1   
    12    12    13 2   
    13    12    14 1   
    14    10    15 1   
    15     9    16 1   
    16    16    17 1   
    17    17    18 2   
    18    18    19 1   
    19    18    20 1   
    20    20    21 1   
    21    21    22 1   
    22    22    23 2   
    23    23    24 1   
    24    23    25 1   
    25     8    26 1   
    26    11     6 ar  
    27     1    27 1   
    28     1    28 1   
    29     1    29 1   
    30     2    30 1   
    31     2    31 1   
    32     3    32 1   
    33     3    33 1   
    34     4    34 1   
    35     4    35 1   
    36     5    36 1   
    37     5    37 1   
    38     7    38 1   
    39    14    39 1   
    40    15    40 1   
    41    16    41 1   
    42    16    42 1   
    43    17    43 1   
    44    19    44 1   
    45    19    45 1   
    46    19    46 1   
    47    20    47 1   
    48    20    48 1   
    49    21    49 1   
    50    21    50 1   
    51    22    51 1   
    52    24    52 1   
    53    24    53 1   
    54    24    54 1   
    55    25    55 1   
    56    25    56 1   
    57    25    57 1   
    58    26    58 1   
@<TRIPOS>SUBSTRUCTURE
     1 MOL         1 TEMP              0 ****  ****    0 ROOT
