@<TRIPOS>MOLECULE
MOL
   86    91     1     0     0
SMALL
bcc


@<TRIPOS>ATOM
      1 C1          -6.1620     0.4940     3.8780 c3         1 MOL      -0.052800
      2 C2          -5.9580     0.4410     2.3850 ca         1 MOL      -0.112300
      3 C3          -6.5670     1.4060     1.5750 ca         1 MOL      -0.103300
      4 C4          -6.4060     1.3870     0.1870 ca         1 MOL       0.284600
      5 C5          -5.6200     0.3790    -0.4440 ca         1 MOL      -0.001600
      6 C6          -5.0230    -0.5960     0.3910 ca         1 MOL      -0.189000
      7 C7          -5.1660    -0.5640     1.7880 ca         1 MOL      -0.006300
      8 C8          -4.5100    -1.6400     2.6210 c3         1 MOL      -0.074800
      9 N1          -5.4680     0.3790    -1.8270 na         1 MOL      -0.104100
     10 C9          -6.0790     1.3670    -2.5620 cc         1 MOL       0.082400
     11 N2          -5.9660     1.4310    -3.9170 nd         1 MOL      -0.416400
     12 C10         -6.5920     2.3990    -4.6390 c          1 MOL       0.850900
     13 O1          -6.4610     2.4160    -5.8920 o          1 MOL      -0.581500
     14 N3          -7.3600     3.3440    -4.0200 n          1 MOL      -0.615500
     15 C11         -7.5230     3.3550    -2.6670 c          1 MOL       0.611000
     16 O2          -8.2390     4.2420    -2.1250 o          1 MOL      -0.571500
     17 C12         -6.8970     2.3820    -1.8890 cc         1 MOL       0.301800
     18 N4          -7.0240     2.3460    -0.5470 nd         1 MOL      -0.516000
     19 C13         -4.6810    -0.6440    -2.5650 c3         1 MOL      -0.000700
     20 C14         -3.2570    -0.1340    -2.9270 c3         1 MOL       0.100100
     21 C15         -2.2390    -0.1450    -1.7480 c3         1 MOL       0.118100
     22 C16         -1.5800    -1.5290    -1.4720 c3         1 MOL       0.086100
     23 C17         -0.6160    -1.4740    -0.2760 c3         1 MOL       0.154400
     24 O3          -1.2780    -0.9600     0.8580 os         1 MOL      -0.608200
     25 P1          -0.2670    -1.1650     2.2180 p5         1 MOL       1.809500
     26 O4          -0.3850    -2.5950     2.6950 o          1 MOL      -0.818300
     27 O5          -0.7890    -0.1420     3.4650 oh         1 MOL      -0.765400
     28 O6           1.3580    -0.8570     1.8060 os         1 MOL      -0.801800
     29 P2           1.6090     0.8270     1.8550 p5         1 MOL       1.813500
     30 O7           0.4610     1.5800     1.2110 o          1 MOL      -0.849300
     31 O8           1.7570     1.3190     3.4680 oh         1 MOL      -0.779400
     32 O9           3.0770     1.1730     1.0510 os         1 MOL      -0.591200
     33 C18          2.8640     1.2610    -0.3450 c3         1 MOL       0.148400
     34 C19          4.0120     0.5710    -1.0930 c3         1 MOL       0.073100
     35 C20          3.9970    -0.9570    -0.8880 c3         1 MOL       0.130100
     36 C21          5.2780    -1.2180    -0.1230 c3         1 MOL       0.078100
     37 C22          6.1210    -0.0070    -0.4800 c3         1 MOL       0.215800
     38 O10          5.2510     1.0890    -0.6500 os         1 MOL      -0.398600
     39 N5           7.1040     0.2720     0.5710 na         1 MOL      -0.294000
     40 C23          7.0880     1.2570     1.5110 cc         1 MOL       0.395700
     41 N6           8.1910     1.2550     2.3120 nd         1 MOL      -0.531100
     42 C24          8.9050     0.2190     1.8340 ca         1 MOL      -0.240200
     43 C25         10.1460    -0.2640     2.2390 ca         1 MOL       0.768200
     44 N7          10.6650    -1.3270     1.5540 nb         1 MOL      -0.792000
     45 C26          9.9900    -1.8990     0.5040 ca         1 MOL       0.693900
     46 N8           8.7720    -1.4140     0.1160 nb         1 MOL      -0.740000
     47 C27          8.2580    -0.3640     0.8000 ca         1 MOL       0.475800
     48 N9          10.8680     0.3250     3.3210 nh         1 MOL      -0.958500
     49 O11          5.9060    -2.4140    -0.5080 oh         1 MOL      -0.591800
     50 O12          3.9600    -1.6340    -2.1230 oh         1 MOL      -0.594800
     51 O13         -2.5620    -2.5020    -1.2290 oh         1 MOL      -0.624800
     52 O14         -1.2440     0.8220    -1.9770 oh         1 MOL      -0.586800
     53 O15         -2.7450    -0.8190    -4.0440 oh         1 MOL      -0.590800
     54 H1          -5.1890     0.6600     4.3890 hc         1 MOL       0.050367
     55 H2          -6.8420     1.3240     4.1730 hc         1 MOL       0.050367
     56 H3          -6.6110    -0.4590     4.2320 hc         1 MOL       0.050367
     57 H4          -7.1800     2.1800     2.0210 ha         1 MOL       0.163000
     58 H5          -4.4220    -1.3900    -0.0090 ha         1 MOL       0.168000
     59 H6          -3.7840    -2.2380     2.0300 hc         1 MOL       0.060700
     60 H7          -5.2880    -2.3250     3.0150 hc         1 MOL       0.060700
     61 H8          -3.9550    -1.1930     3.4730 hc         1 MOL       0.060700
     62 H9          -7.8330     4.0750    -4.5990 hn         1 MOL       0.348500
     63 H10         -5.2060    -0.8900    -3.5160 h1         1 MOL       0.088200
     64 H11         -4.6710    -1.6250    -2.0600 h1         1 MOL       0.088200
     65 H12         -3.3710     0.9260    -3.2380 h1         1 MOL       0.120700
     66 H13         -2.7800     0.1750    -0.8370 h1         1 MOL       0.100700
     67 H14         -0.9840    -1.8210    -2.3690 h1         1 MOL       0.057700
     68 H15          0.2440    -0.8280    -0.5490 h1         1 MOL       0.073700
     69 H16         -0.2370    -2.5050    -0.0930 h1         1 MOL       0.073700
     70 H17         -1.7680    -0.0520     3.3290 ho         1 MOL       0.496000
     71 H18          2.0180     2.2730     3.4190 ho         1 MOL       0.492000
     72 H19          1.9140     0.8070    -0.7110 h1         1 MOL       0.078200
     73 H20          2.8460     2.3350    -0.6280 h1         1 MOL       0.078200
     74 H21          3.8980     0.8140    -2.1750 h1         1 MOL       0.091700
     75 H22          3.1260    -1.2960    -0.2830 h1         1 MOL       0.112700
     76 H23          5.0670    -1.2200     0.9730 h1         1 MOL       0.076700
     77 H24          6.6600    -0.1750    -1.4400 h2         1 MOL       0.131700
     78 H25          6.2850     1.9760     1.6180 h5         1 MOL       0.074800
     79 H26         10.4240    -2.7370    -0.0210 h5         1 MOL       0.055100
     80 H27         11.7960    -0.0630     3.6020 hn         1 MOL       0.451300
     81 H28         10.4930     1.1540     3.8350 hn         1 MOL       0.451300
     82 H29          5.3810    -3.1510    -0.1000 ho         1 MOL       0.427000
     83 H30          4.7550    -1.3600    -2.6510 ho         1 MOL       0.430000
     84 H31         -2.1420    -3.3890    -1.3850 ho         1 MOL       0.431000
     85 H32         -0.7570     0.5640    -2.8030 ho         1 MOL       0.408000
     86 H33         -2.8600    -1.7910    -3.8840 ho         1 MOL       0.409000
@<TRIPOS>BOND
     1     1     2 1   
     2     2     3 ar  
     3     3     4 ar  
     4     4     5 ar  
     5     5     6 ar  
     6     6     7 ar  
     7     7     8 1   
     8     5     9 1   
     9     9    10 1   
    10    10    11 2   
    11    11    12 1   
    12    12    13 2   
    13    12    14 1   
    14    14    15 1   
    15    15    16 2   
    16    15    17 1   
    17    17    18 2   
    18     9    19 1   
    19    19    20 1   
    20    20    21 1   
    21    21    22 1   
    22    22    23 1   
    23    23    24 1   
    24    24    25 1   
    25    25    26 2   
    26    25    27 1   
    27    25    28 1   
    28    28    29 1   
    29    29    30 2   
    30    29    31 1   
    31    29    32 1   
    32    32    33 1   
    33    33    34 1   
    34    34    35 1   
    35    35    36 1   
    36    36    37 1   
    37    37    38 1   
    38    37    39 1   
    39    39    40 1   
    40    40    41 2   
    41    41    42 1   
    42    42    43 ar  
    43    43    44 ar  
    44    44    45 ar  
    45    45    46 ar  
    46    46    47 ar  
    47    43    48 1   
    48    36    49 1   
    49    35    50 1   
    50    22    51 1   
    51    21    52 1   
    52    20    53 1   
    53     7     2 ar  
    54    18     4 1   
    55    17    10 1   
    56    38    34 1   
    57    47    39 1   
    58    47    42 ar  
    59     1    54 1   
    60     1    55 1   
    61     1    56 1   
    62     3    57 1   
    63     6    58 1   
    64     8    59 1   
    65     8    60 1   
    66     8    61 1   
    67    14    62 1   
    68    19    63 1   
    69    19    64 1   
    70    20    65 1   
    71    21    66 1   
    72    22    67 1   
    73    23    68 1   
    74    23    69 1   
    75    27    70 1   
    76    31    71 1   
    77    33    72 1   
    78    33    73 1   
    79    34    74 1   
    80    35    75 1   
    81    36    76 1   
    82    37    77 1   
    83    40    78 1   
    84    45    79 1   
    85    48    80 1   
    86    48    81 1   
    87    49    82 1   
    88    50    83 1   
    89    51    84 1   
    90    52    85 1   
    91    53    86 1   
@<TRIPOS>SUBSTRUCTURE
     1 MOL         1 TEMP              0 ****  ****    0 ROOT
