@<TRIPOS>MOLECULE
FAD-extracted.pdb
85 90 1 0 0
SMALL
AMBER ff14SB


@<TRIPOS>ATOM
      1 PA         69.4470   63.0030  -37.3050 P.3       1 FAD    1.6008
      2 O1A        68.4260   62.6150  -38.3420 O.co2     1 FAD   -0.8650
      3 O2A        70.7090   63.4480  -37.9890 O.co2     1 FAD   -0.8650
      4 O5B        68.6460   64.0340  -36.4280 O.3       1 FAD   -0.5832
      5 C5B        69.2280   65.1390  -35.9220 C.3       1 FAD    0.1914
      6 C4B        68.1380   66.1820  -35.8830 C.3       1 FAD    0.0801
      7 O4B        68.7300   67.3060  -35.2990 O.3       1 FAD   -0.4286
      8 C3B        67.8720   66.7190  -37.2520 C.3       1 FAD    0.0911
      9 O3B        66.8560   67.6700  -37.0910 O.3       1 FAD   -0.5978
     10 C2B        69.1540   67.4620  -37.5730 C.3       1 FAD    0.0731
     11 O2B        68.9920   68.4640  -38.5330 O.3       1 FAD   -0.6118
     12 C1B        69.4950   68.0660  -36.2420 C.3       1 FAD    0.2508
     13 N9A        70.9410   67.9520  -35.9940 N.ar      1 FAD   -0.2612
     14 C8A        71.7410   66.8290  -35.8950 C.ar      1 FAD    0.1182
     15 N7A        73.0180   67.1990  -35.6270 N.ar      1 FAD   -0.1500
     16 C5A        73.0400   68.5540  -35.5370 C.ar      1 FAD   -0.3496
     17 C6A        74.0480   69.4900  -35.2960 C.ar      1 FAD    0.7192
     18 N6A        75.3170   69.1190  -35.1350 N.pl3     1 FAD   -0.9445
     19 N1A        73.7360   70.8410  -35.2700 N.ar      1 FAD   -0.8010
     20 C2A        72.4410   71.2730  -35.4680 C.ar      1 FAD    0.3929
     21 N3A        71.4480   70.3680  -35.7000 N.ar      1 FAD   -0.1950
     22 C4A        71.7390   69.0350  -35.7550 C.ar      1 FAD    0.2108
     23 N1         65.9150   59.0390  -28.2130 N.am      1 FAD   -0.4431
     24 C2         65.9120   59.0230  -26.8170 C.2       1 FAD    0.8225
     25 O2         65.8060   60.1100  -26.1940 O.2       1 FAD   -0.5805
     26 N3         66.0180   57.7810  -26.1440 N.am      1 FAD   -0.5915
     27 C4         66.1290   56.6190  -26.8920 C.2       1 FAD    0.6300
     28 O4         66.2220   55.5490  -26.3010 O.2       1 FAD   -0.5465
     29 C4X        66.1390   56.6500  -28.2910 C.ar      1 FAD    0.2628
     30 N5         66.2430   55.4790  -29.0290 N.ar      1 FAD   -0.4750
     31 C5X        66.2510   55.5300  -30.4200 C.ar      1 FAD    0.3046
     32 C6         66.3810   54.3880  -31.2140 C.ar      1 FAD   -0.1123
     33 C7         66.3970   54.5100  -32.6220 C.ar      1 FAD   -0.0763
     34 C7M        66.5210   53.2890  -33.5020 C.3       1 FAD   -0.0628
     35 C8         66.3080   55.7720  -33.2420 C.ar      1 FAD    0.1097
     36 C8M        66.3370   55.9700  -34.7530 C.3       1 FAD   -0.1208
     37 C9         66.1890   56.8920  -32.4300 C.ar      1 FAD   -0.1700
     38 C9A        66.1670   56.7730  -31.0420 C.ar      1 FAD   -0.0086
     39 N10        66.0670   57.9280  -30.3130 N.ar      1 FAD   -0.0081
     40 C10        66.0300   57.8760  -28.9450 C.ar      1 FAD    0.1410
     41 C1'        65.8930   59.1810  -31.1100 C.3       1 FAD   -0.0277
     42 C2'        66.9460   60.2500  -31.1440 C.3       1 FAD    0.0761
     43 O2'        67.1000   60.7680  -29.8630 O.3       1 FAD   -0.6638
     44 C3'        66.4540   61.3260  -32.0840 C.3       1 FAD    0.1551
     45 O3'        66.1250   60.6420  -33.2650 O.3       1 FAD   -0.6348
     46 C4'        67.5990   62.2660  -32.3900 C.3       1 FAD    0.0851
     47 O4'        67.1030   63.5660  -32.7120 O.3       1 FAD   -0.6188
     48 C5'        68.4110   61.6350  -33.5200 C.3       1 FAD    0.1314
     49 O5'        69.6510   62.2580  -33.6300 O.3       1 FAD   -0.6212
     50 P          70.5570   61.8370  -34.8800 P.3       1 FAD    1.6268
     51 O1P        71.6800   62.8540  -35.0930 O.co2     1 FAD   -0.8900
     52 O2P        71.0640   60.4180  -34.6390 O.co2     1 FAD   -0.8900
     53 O3P        69.6150   61.8170  -36.2150 O.3       1 FAD   -0.8208
     54 H5B2       69.6067   64.9452  -34.9184 H         1 FAD    0.0387
     55 H5B3       70.0388   65.4675  -36.5722 H         1 FAD    0.0387
     56 H4B        67.2381   65.8488  -35.3661 H         1 FAD    0.0737
     57 H3B        67.6277   65.9450  -37.9796 H         1 FAD    0.1357
     58 HO3B       66.6388   68.0543  -37.9435 H         1 FAD    0.3980
     59 H2B        69.9306   66.7624  -37.8822 H         1 FAD    0.1197
     60 HO2B       68.7744   68.0653  -39.3788 H         1 FAD    0.4190
     61 H1B        69.1909   69.1124  -36.2156 H         1 FAD    0.1087
     62 H8A        71.4006   65.8109  -36.0132 H         1 FAD    0.1618
     63 H6A1       75.5653   68.1406  -35.1687 H         1 FAD    0.4233
     64 H6A2       76.0310   69.8161  -34.9792 H         1 FAD    0.4233
     65 H2A        72.2136   72.3284  -35.4392 H         1 FAD    0.0351
     66 H1         65.8311   59.9214  -28.6972 H         1 FAD    0.4125
     67 H3         66.0128   57.7426  -25.1347 H         1 FAD    0.3675
     68 H6         66.4690   53.4151  -30.7535 H         1 FAD    0.1640
     69 H7M1       66.5766   52.3960  -32.8795 H         1 FAD    0.0597
     70 H7M2       65.6511   53.2225  -34.1554 H         1 FAD    0.0597
     71 H7M3       67.4245   53.3672  -34.1067 H         1 FAD    0.0597
     72 H8M1       66.2561   57.0325  -34.9823 H         1 FAD    0.0984
     73 H8M2       65.5011   55.4363  -35.2052 H         1 FAD    0.0984
     74 H8M3       67.2743   55.5825  -35.1523 H         1 FAD    0.0984
     75 H9         66.1123   57.8702  -32.8812 H         1 FAD    0.1920
     76 H1'        64.9859   59.6569  -30.7374 H         1 FAD    0.0962
     77 H1''       65.7014   58.8837  -32.1410 H         1 FAD    0.0962
     78 H2'        67.8902   59.8390  -31.5013 H         1 FAD    0.1417
     79 HO2'       67.8013   61.4236  -29.8646 H         1 FAD    0.4920
     80 H3'        65.5953   61.8574  -31.6738 H         1 FAD    0.0727
     81 HO3'       65.2499   60.2567  -33.1790 H         1 FAD    0.4390
     82 H4'        68.2325   62.3434  -31.5064 H         1 FAD    0.0617
     83 HO4'       67.8393   64.1515  -32.9037 H         1 FAD    0.4190
     84 H5'        68.5583   60.5759  -33.3087 H         1 FAD    0.0672
     85 H5''       67.8680   61.7436  -34.4588 H         1 FAD    0.0672
@<TRIPOS>BOND
     1   41   39 1
     2   41   42 1
     3   40   23 1
     4   40   29 ar
     5   40   39 ar
     6   12    7 1
     7   12   10 1
     8   12   13 1
     9   24   23 am
    10   24   25 2
    11   24   26 am
    12   42   43 1
    13   42   44 1
    14   20   19 ar
    15   20   21 ar
    16   10    8 1
    17   10   11 1
    18   44   45 1
    19   44   46 1
    20    8    6 1
    21    8    9 1
    22   27   26 am
    23   27   28 2
    24   27   29 1
    25   46   47 1
    26   46   48 1
    27   22   13 ar
    28   22   16 ar
    29   22   21 ar
    30    6    5 1
    31    6    7 1
    32   29   30 ar
    33   48   49 1
    34   16   15 ar
    35   16   17 ar
    36    5    4 1
    37   31   30 ar
    38   31   32 ar
    39   31   38 ar
    40   32   33 ar
    41   17   18 1
    42   17   19 ar
    43   33   34 1
    44   33   35 ar
    45   35   36 1
    46   35   37 ar
    47   14   13 ar
    48   14   15 ar
    49   37   38 ar
    50   38   39 ar
    51    2    1 1
    52   51   50 1
    53    3    1 1
    54   52   50 1
    55   53    1 1
    56   53   50 1
    57   49   50 1
    58    4    1 1
    59   54    5 1
    60   55    5 1
    61   56    6 1
    62   57    8 1
    63   58    9 1
    64   59   10 1
    65   60   11 1
    66   61   12 1
    67   62   14 1
    68   63   18 1
    69   64   18 1
    70   65   20 1
    71   66   23 1
    72   67   26 1
    73   68   32 1
    74   69   34 1
    75   70   34 1
    76   71   34 1
    77   72   36 1
    78   73   36 1
    79   74   36 1
    80   75   37 1
    81   76   41 1
    82   77   41 1
    83   78   42 1
    84   79   43 1
    85   80   44 1
    86   81   45 1
    87   82   46 1
    88   83   47 1
    89   84   48 1
    90   85   48 1
@<TRIPOS>SUBSTRUCTURE
     1 FAD    46 RESIDUE           4 A     FAD     0 ROOT
